{
    "ipv4_peers": [
        {
            "asn": 42,
            "country_code": "US",
            "description": "WoodyNet",
            "name": "WOODYNET-1"
        },
        {
            "asn": 1120,
            "country_code": "EU",
            "description": "ACOnet Services @ Vienna Internet eXchange",
            "name": "ACOnet_Services"
        },
        {
            "asn": 1764,
            "country_code": "AT",
            "description": "Next Layer Telekommunikationsdienstleistungs- und Beratungs GmbH",
            "name": "NEXTLAYER-AS"
        },
        {
            "asn": 1820,
            "country_code": "US",
            "description": "WNET TELECOM USA Corp.",
            "name": "WNET"
        },
        {
            "asn": 1853,
            "country_code": "AT",
            "description": "ACOnet Backbone",
            "name": "ACOnet"
        },
        {
            "asn": 2635,
            "country_code": "US",
            "description": "Automattic, Inc",
            "name": "AUTOMATTIC"
        },
        {
            "asn": 2686,
            "country_code": "US",
            "description": "AT&T Global Network Services, LLC",
            "name": "ATGS-MMD-AS"
        },
        {
            "asn": 2906,
            "country_code": "US",
            "description": "Netflix Streaming Services Inc.",
            "name": "AS-SSI"
        },
        {
            "asn": 3212,
            "country_code": "SI",
            "description": "Broadband Access & Carrier Services",
            "name": "TELEMACH"
        },
        {
            "asn": 3223,
            "country_code": "GB",
            "description": "Voxility LLP",
            "name": "VOXILITY"
        },
        {
            "asn": 3303,
            "country_code": "CH",
            "description": "Swisscom (Switzerland) Ltd",
            "name": "SWISSCOM"
        },
        {
            "asn": 3330,
            "country_code": "AT",
            "description": "Vienna, Austria",
            "name": "PROFINET-AT"
        },
        {
            "asn": 3856,
            "country_code": "US",
            "description": "Packet Clearing House",
            "name": "PCH-AS"
        },
        {
            "asn": 5403,
            "country_code": "AT",
            "description": "APA-IT Informations Technologie G.m.b.H",
            "name": "AS5403"
        },
        {
            "asn": 5578,
            "country_code": "SK",
            "description": "Bratislava, Slovak Republic",
            "name": "AS-BENESTRA"
        },
        {
            "asn": 5588,
            "country_code": "CZ",
            "description": "GTS Central Europe / Antel Germany",
            "name": "GTSCE"
        },
        {
            "asn": 6663,
            "country_code": "RO",
            "description": "Euroweb Romania S.R.L.",
            "name": "TTI-NET"
        },
        {
            "asn": 6730,
            "country_code": "CH",
            "description": "Sunrise Communications AG",
            "name": "SUNRISE"
        },
        {
            "asn": 6798,
            "country_code": "AT",
            "description": "Net4You Internet GmbH",
            "name": "NET4YOU-AS"
        },
        {
            "asn": 6830,
            "country_code": "AT",
            "description": "Liberty Global (formerly UPC Broadband Holding, aka AORTA)",
            "name": "LibertyGlobal"
        },
        {
            "asn": 6883,
            "country_code": "AT",
            "description": "Parlamentsdirektion",
            "name": "UNSPECIFIED"
        },
        {
            "asn": 6939,
            "country_code": "US",
            "description": "Hurricane Electric LLC",
            "name": "HURRICANE"
        },
        {
            "asn": 7713,
            "country_code": "ID",
            "description": "PT Telekomunikasi Indonesia",
            "name": "telkomnet-as-ap"
        },
        {
            "asn": 8075,
            "country_code": "US",
            "description": "Microsoft Corporation",
            "name": "MICROSOFT-CORP-MSN-AS-BLOCK"
        },
        {
            "asn": 8218,
            "country_code": "FR",
            "description": "legacy Neotelecoms",
            "name": "NEO-ASN"
        },
        {
            "asn": 8245,
            "country_code": "AT",
            "description": "Video-Broadcast GmbH",
            "name": "VIDEOBROADCAST-AS"
        },
        {
            "asn": 8339,
            "country_code": "AT",
            "description": "kabelplus GmbH",
            "name": "KABSI-AS"
        },
        {
            "asn": 8387,
            "country_code": "AT",
            "description": "Rennweg 97-99",
            "name": "T-SYSTEMS-AT"
        },
        {
            "asn": 8400,
            "country_code": "RS",
            "description": "TELEKOM SRBIJA a.d.",
            "name": "TELEKOM-AS"
        },
        {
            "asn": 8412,
            "country_code": "AT",
            "description": "Rennweg 97-99",
            "name": "TMA"
        },
        {
            "asn": 8445,
            "country_code": "AT",
            "description": "SALZBURG AG fur Energie, Verkehr und Telekommunikation",
            "name": "SALZBURG-AG-AS"
        },
        {
            "asn": 8447,
            "country_code": "AT",
            "description": "A1 Telekom Austria AG",
            "name": "TELEKOM-AT"
        },
        {
            "asn": 8596,
            "country_code": "AT",
            "description": "hotze.com GmbH",
            "name": "HOTZE-AS"
        },
        {
            "asn": 8674,
            "country_code": "SE",
            "description": "Netnod Internet Exchange Sverige AB",
            "name": "NETNOD-IX"
        },
        {
            "asn": 8692,
            "country_code": "AT",
            "description": "Bundesrechenzentrum GmbH",
            "name": "BRZ"
        },
        {
            "asn": 8953,
            "country_code": "RO",
            "description": "Orange Romania S.A.",
            "name": "ASN-ORANGE-ROMANIA"
        },
        {
            "asn": 9009,
            "country_code": "GB",
            "description": "M247 Ltd",
            "name": "M247"
        },
        {
            "asn": 9119,
            "country_code": "SI",
            "description": "Internet Service Provider in Slovenia and South Europe region",
            "name": "SOFTNET-AS"
        },
        {
            "asn": 10310,
            "country_code": "US",
            "description": "Oath Holdings Inc.",
            "name": "YAHOO-1"
        },
        {
            "asn": 12401,
            "country_code": "AT",
            "description": "internic Datenkommunikations GmbH.",
            "name": "INTERNIC-AS12401"
        },
        {
            "asn": 12453,
            "country_code": "AT",
            "description": "Bernhard Kraft",
            "name": "KRAFTCOM-AS"
        },
        {
            "asn": 12577,
            "country_code": "AT",
            "description": "Muehlgasse 14E",
            "name": "MMC-AT-AS"
        },
        {
            "asn": 12605,
            "country_code": "AT",
            "description": "Linz, Austria",
            "name": "LIWEST-AT"
        },
        {
            "asn": 12762,
            "country_code": "AT",
            "description": "Vorarlberger Informatik- und Telekommunikationsdienstleistungsgesellschaft mbH",
            "name": "VTG-AT"
        },
        {
            "asn": 12895,
            "country_code": "AT",
            "description": "Vienna, Austria",
            "name": "IT-AUSTRIA"
        },
        {
            "asn": 12971,
            "country_code": "AT",
            "description": "Perfektastrasse 19",
            "name": "BIOS-AT"
        },
        {
            "asn": 12991,
            "country_code": "AT",
            "description": "Rechenzentrum",
            "name": "Land-OOE"
        },
        {
            "asn": 13030,
            "country_code": "CH",
            "description": "Init7 (Switzerland) Ltd.",
            "name": "INIT7"
        },
        {
            "asn": 13046,
            "country_code": "HR",
            "description": "HEP",
            "name": "ASN-ISKON"
        },
        {
            "asn": 13101,
            "country_code": "DE",
            "description": "TNG Stadtnetz GmbH",
            "name": "TNG-AS"
        },
        {
            "asn": 13237,
            "country_code": "DE",
            "description": "European Backbone of AS13237",
            "name": "LAMBDANET-AS"
        },
        {
            "asn": 13335,
            "country_code": "US",
            "description": "Cloudflare, Inc.",
            "name": "CLOUDFLARENET"
        },
        {
            "asn": 15576,
            "country_code": "CH",
            "description": "NTS workspace AG",
            "name": "NTS"
        },
        {
            "asn": 15702,
            "country_code": "AT",
            "description": "Onstage Online GmbH",
            "name": "ONSTAGENET"
        },
        {
            "asn": 16099,
            "country_code": "AT",
            "description": "Hauptverband der oesterreichischen Sozialversicherungstraeger",
            "name": "SOZVERS-NET"
        },
        {
            "asn": 16276,
            "country_code": "FR",
            "description": "OVH SAS",
            "name": "OVH"
        },
        {
            "asn": 16314,
            "country_code": "AT",
            "description": "Stadlauer Strasse 54",
            "name": "WIENKAV"
        },
        {
            "asn": 20537,
            "country_code": "AT",
            "description": "Austria",
            "name": "UNSPECIFIED"
        },
        {
            "asn": 20546,
            "country_code": "DE",
            "description": "SOPRADO GmbH",
            "name": "SOPRADO-ANY"
        },
        {
            "asn": 20704,
            "country_code": "AT",
            "description": "Hirschstettnerstr. 19-21 L1",
            "name": "FUNKNETZ-AS"
        },
        {
            "asn": 20751,
            "country_code": "AT",
            "description": "AZISTA GmbH",
            "name": "ASN-AZISTA"
        },
        {
            "asn": 20940,
            "country_code": "EU",
            "description": "Akamai International B.V.",
            "name": "AKAMAI-ASN1"
        },
        {
            "asn": 21013,
            "country_code": "AT",
            "description": "Wels, AT",
            "name": "ITANDTEL-AS"
        },
        {
            "asn": 21360,
            "country_code": "AT",
            "description": "Horneckgasse 8",
            "name": "Empirion"
        },
        {
            "asn": 21385,
            "country_code": "DE",
            "description": "Trusted Network GmbH",
            "name": "TNIB"
        },
        {
            "asn": 24864,
            "country_code": "AT",
            "description": "Raiffeisen Informatik GmbH & Co KG",
            "name": "R-IT-AS"
        },
        {
            "asn": 24940,
            "country_code": "DE",
            "description": "Hetzner Online GmbH",
            "name": "HETZNER-AS"
        },
        {
            "asn": 24953,
            "country_code": "AT",
            "description": "AS MACRO: AS-24953 (customers)",
            "name": "ASN-NETPLANET"
        },
        {
            "asn": 25011,
            "country_code": "AT",
            "description": "OeBB Infrastruktur AG",
            "name": "AUSTRIAN-RAILWAYS-AS"
        },
        {
            "asn": 25152,
            "country_code": "EU",
            "description": "Reseaux IP Europeens Network Coordination Centre (RIPE NCC)",
            "name": "K-ROOT-SERVER"
        },
        {
            "asn": 25255,
            "country_code": "AT",
            "description": "==> TELE2 AUSTRIA <==",
            "name": "H3G-Austria-AS"
        },
        {
            "asn": 25447,
            "country_code": "AT",
            "description": "Hackl-Str. 1, Object 2",
            "name": "JM-DATA"
        },
        {
            "asn": 25467,
            "country_code": "SI",
            "description": "Akton Autonomous System",
            "name": "AKTON-AS"
        },
        {
            "asn": 25575,
            "country_code": "AT",
            "description": "Ledl.net GmbH",
            "name": "DOMAINTECHNIK"
        },
        {
            "asn": 26415,
            "country_code": "US",
            "description": "VeriSign Global Registry Services",
            "name": "VERISIGN-INC"
        },
        {
            "asn": 28760,
            "country_code": "AT",
            "description": "Schaerdingerstr. 35",
            "name": "INFOTECH-AT-AS"
        },
        {
            "asn": 28857,
            "country_code": "AT",
            "description": "DXC Technology Austria GmbH",
            "name": "CSC-AS"
        },
        {
            "asn": 28889,
            "country_code": "AT",
            "description": "LinzNet Internet Service Provider GmbH",
            "name": "LINZNET-AS"
        },
        {
            "asn": 29056,
            "country_code": "AT",
            "description": "Citycom Telekommunikation GmbH",
            "name": "GSTW-AS"
        },
        {
            "asn": 29081,
            "country_code": "AT",
            "description": "WVNET Information und Kommunikation GmbH",
            "name": "WVNET-AT-AS"
        },
        {
            "asn": 29208,
            "country_code": "SK",
            "description": "Dial Telecom a.s.",
            "name": "DIALTELECOM-AS"
        },
        {
            "asn": 29287,
            "country_code": "AT",
            "description": "Wien Energie",
            "name": "AT-WZN-AS"
        },
        {
            "asn": 29545,
            "country_code": "AT",
            "description": "Ringstrasse 5",
            "name": "IPLACE"
        },
        {
            "asn": 29633,
            "country_code": "AT",
            "description": "KELAG-Karntner Elektrizitats - Aktiengesellschaft",
            "name": "KELAG-AT-AS"
        },
        {
            "asn": 30971,
            "country_code": "AT",
            "description": "Jakob-Haringer-Strasse 8",
            "name": "NICAT-CORE-AS"
        },
        {
            "asn": 31042,
            "country_code": "RS",
            "description": "Serbia BroadBand-Srpske Kablovske mreze d.o.o.",
            "name": "SERBIA-BROADBAND-AS"
        },
        {
            "asn": 31510,
            "country_code": "AT",
            "description": "Innsbrucker Kommunalbetriebe AG",
            "name": "IKB-AS"
        },
        {
            "asn": 31529,
            "country_code": "DE",
            "description": "DNS anycast AS object for .DE DNS service",
            "name": "DENIC-ANYCAST-AS"
        },
        {
            "asn": 31543,
            "country_code": "AT",
            "description": "myNET gmbh",
            "name": "MYNET-AS"
        },
        {
            "asn": 32590,
            "country_code": "US",
            "description": "Valve Corporation",
            "name": "VALVE-CORPORATION"
        },
        {
            "asn": 33891,
            "country_code": "DE",
            "description": "CORE-BACKBONE GMBH GLOBAL NETWORK",
            "name": "CORE-BACKBONE"
        },
        {
            "asn": 34183,
            "country_code": "AT",
            "description": "AUSTRIA",
            "name": "BMG"
        },
        {
            "asn": 34288,
            "country_code": "CH",
            "description": "EDU-ZG-CH - Public Schools in the Canton of Zug",
            "name": "AS34288"
        },
        {
            "asn": 34347,
            "country_code": "AT",
            "description": "HALLAG Kommunal GmbH",
            "name": "CITYNET-AT-AS"
        },
        {
            "asn": 34772,
            "country_code": "MK",
            "description": "NEOTEL DOO export-import Skopje",
            "name": "NEOTEL-AS-MK"
        },
        {
            "asn": 34779,
            "country_code": "SI",
            "description": "AS set propagated by T-2, d.o.o.",
            "name": "T-2-AS"
        },
        {
            "asn": 35052,
            "country_code": "AT",
            "description": "Vienna University",
            "name": "AS_AT_TLD_SERVICES"
        },
        {
            "asn": 35339,
            "country_code": "AT",
            "description": "AtNOC Clemens Zauner e.U.",
            "name": "CZ-AS"
        },
        {
            "asn": 35369,
            "country_code": "AT",
            "description": "LINZ STROM GAS WAERME GmbH fuer Energiedienstleistungen und Telekommunikation",
            "name": "LINZAG-TELEKOM-AS"
        },
        {
            "asn": 38955,
            "country_code": "AT",
            "description": "World4You Internet Services GmbH",
            "name": "WORLD4YOU"
        },
        {
            "asn": 39057,
            "country_code": "AT",
            "description": "DVT-Daten-Verarbeitung-Tirol GmbH",
            "name": "TIROLERLANDESREGIERUNG-AS"
        },
        {
            "asn": 39478,
            "country_code": "AT",
            "description": "ASFINAG",
            "name": "ASFINAG"
        },
        {
            "asn": 39533,
            "country_code": "CH",
            "description": "Asympto Networks Kft.",
            "name": "asympto"
        },
        {
            "asn": 39560,
            "country_code": "AT",
            "description": "KT-NET Communications GmbH",
            "name": "KT-NET"
        },
        {
            "asn": 39878,
            "country_code": "AT",
            "description": "Peter Rauter GmbH",
            "name": "RAUTER-AS"
        },
        {
            "asn": 39912,
            "country_code": "AT",
            "description": "oja.at GmbH",
            "name": "i3B-AS"
        },
        {
            "asn": 41249,
            "country_code": "AT",
            "description": "Amt der Kaerntner Landesregierung",
            "name": "ADKL-AS"
        },
        {
            "asn": 41491,
            "country_code": "AT",
            "description": "Stadtwerke Kapfenberg",
            "name": "STAKA-AS"
        },
        {
            "asn": 41915,
            "country_code": "AT",
            "description": "Land-,forst- und wasserwirtschaft-liches Rechenzentrum GmbH",
            "name": "LFRZ"
        },
        {
            "asn": 42685,
            "country_code": "AT",
            "description": "Bundeskanzleramt",
            "name": "BKA"
        },
        {
            "asn": 43061,
            "country_code": "SI",
            "description": "Stelkom d.o.o.",
            "name": "SI-STELKOM"
        },
        {
            "asn": 43848,
            "country_code": "AT",
            "description": "Unterauerstrasse 7",
            "name": "GAMSJAEGER"
        },
        {
            "asn": 43957,
            "country_code": "AT",
            "description": "WNT Telecommunication GmbH",
            "name": "ASN-WNTNEWMEDIA"
        },
        {
            "asn": 44306,
            "country_code": "HR",
            "description": "OMONIA d.o.o.",
            "name": "Omonia"
        },
        {
            "asn": 44765,
            "country_code": "AT",
            "description": "MakeNewMedia Communications GmbH",
            "name": "MAKENEWMEDIA-AS"
        },
        {
            "asn": 44865,
            "country_code": "AT",
            "description": "derStandard.at GmbH",
            "name": "DERSTANDARD-AS"
        },
        {
            "asn": 47147,
            "country_code": "AT",
            "description": "ANEXIA Internetdienstleistungs GmbH",
            "name": "AS-ANX"
        },
        {
            "asn": 47515,
            "country_code": "AT",
            "description": "Bundesministerium fuer Inneres, Sektion IV",
            "name": "BMI-GOVIX"
        },
        {
            "asn": 47692,
            "country_code": "AT",
            "description": "Nessus GmbH",
            "name": "NESSUS"
        },
        {
            "asn": 48339,
            "country_code": "AT",
            "description": "Raiffeisen Rechenzentrum GmbH",
            "name": "RRZ_Sued_AS"
        },
        {
            "asn": 48362,
            "country_code": "AT",
            "description": "Stadtwerke Feldkirch",
            "name": "TKSWF-AS"
        },
        {
            "asn": 48943,
            "country_code": "AT",
            "description": "KAPPER NETWORK-COMMUNICATIONS GmbH",
            "name": "KAPPERNET"
        },
        {
            "asn": 48984,
            "country_code": "AT",
            "description": "Amt der Steiermaerkischen Landesregierung",
            "name": "STLRG"
        },
        {
            "asn": 49322,
            "country_code": "AT",
            "description": "ViM Internetdienstleistungen GmbH",
            "name": "VIM-AS"
        },
        {
            "asn": 49808,
            "country_code": "AT",
            "description": "Energie AG Oberoesterreich Telekom GmbH",
            "name": "POWERSPEED-AS"
        },
        {
            "asn": 50226,
            "country_code": "AT",
            "description": "NETcompany Internet Provider - NC GmbH",
            "name": "NETCOMPANY1-AS"
        },
        {
            "asn": 50507,
            "country_code": "IT",
            "description": "Accademia Europea di Bolzano",
            "name": "EURAC-AS"
        },
        {
            "asn": 50782,
            "country_code": "AT",
            "description": "COSYS DATA GmbH",
            "name": "COSYS"
        },
        {
            "asn": 51184,
            "country_code": "AT",
            "description": "Fonira Telekom GmbH",
            "name": "FONIRA"
        },
        {
            "asn": 51265,
            "country_code": "AT",
            "description": "Mass Response Service GmbH",
            "name": "MASSRESPONSE-AS2"
        },
        {
            "asn": 51577,
            "country_code": "HR",
            "description": "Styria IT Solutions d.o.o.",
            "name": "STYRIA_AS"
        },
        {
            "asn": 54113,
            "country_code": "US",
            "description": "Fastly",
            "name": "FASTLY"
        },
        {
            "asn": 55256,
            "country_code": "US",
            "description": "Netskope Inc",
            "name": "NETSKOPE"
        },
        {
            "asn": 57169,
            "country_code": "AT",
            "description": "EDIS GmbH",
            "name": "EDIS-AS-EU"
        },
        {
            "asn": 57463,
            "country_code": "BG",
            "description": "NetIX Communications Ltd.",
            "name": "NetIX"
        },
        {
            "asn": 59890,
            "country_code": "AT",
            "description": "Kabel-TV Lampert GmbH & Co KG",
            "name": "Kabel-TV-Lampert"
        },
        {
            "asn": 60517,
            "country_code": "AT",
            "description": "Adolf Noehmer Gesellschaft m.b.H. & Co KG",
            "name": "AS-CABLEVISION"
        },
        {
            "asn": 60823,
            "country_code": "AT",
            "description": "IForce IT GmbH",
            "name": "IFORCE"
        },
        {
            "asn": 62363,
            "country_code": "AT",
            "description": "Ertl & Gross OG",
            "name": "EGW-AS"
        },
        {
            "asn": 200070,
            "country_code": "CZ",
            "description": "CZ.NIC, z.s.p.o.",
            "name": "CZNIC-AS2"
        },
        {
            "asn": 204419,
            "country_code": "AT",
            "description": "ITNS GmbH",
            "name": "ITNS"
        },
        {
            "asn": 205243,
            "country_code": "AT",
            "description": "CloudNow GmbH",
            "name": "CLOUDNOW-AS"
        },
        {
            "asn": 207203,
            "country_code": "AT",
            "description": "TIMEWARP IT Consulting GmbH",
            "name": "TIMEWARP-AS"
        },
        {
            "asn": 208441,
            "country_code": "AT",
            "description": "Amt der Salzburger Landesregierung",
            "name": "LAND-SALZBURG-AS"
        }
    ],
    "ipv6_peers": [
        {
            "asn": 42,
            "country_code": "US",
            "description": "WoodyNet",
            "name": "WOODYNET-1"
        },
        {
            "asn": 1820,
            "country_code": "US",
            "description": "WNET TELECOM USA Corp.",
            "name": "WNET"
        },
        {
            "asn": 1853,
            "country_code": "AT",
            "description": "ACOnet Backbone",
            "name": "ACOnet"
        },
        {
            "asn": 2635,
            "country_code": "US",
            "description": "Automattic, Inc",
            "name": "AUTOMATTIC"
        },
        {
            "asn": 2686,
            "country_code": "US",
            "description": "AT&T Global Network Services, LLC",
            "name": "ATGS-MMD-AS"
        },
        {
            "asn": 2906,
            "country_code": "US",
            "description": "Netflix Streaming Services Inc.",
            "name": "AS-SSI"
        },
        {
            "asn": 3212,
            "country_code": "SI",
            "description": "Broadband Access & Carrier Services",
            "name": "TELEMACH"
        },
        {
            "asn": 3303,
            "country_code": "CH",
            "description": "Swisscom (Switzerland) Ltd",
            "name": "SWISSCOM"
        },
        {
            "asn": 3330,
            "country_code": "AT",
            "description": "Vienna, Austria",
            "name": "PROFINET-AT"
        },
        {
            "asn": 3856,
            "country_code": "US",
            "description": "Packet Clearing House",
            "name": "PCH-AS"
        },
        {
            "asn": 5403,
            "country_code": "AT",
            "description": "APA-IT Informations Technologie G.m.b.H",
            "name": "AS5403"
        },
        {
            "asn": 5578,
            "country_code": "SK",
            "description": "Bratislava, Slovak Republic",
            "name": "AS-BENESTRA"
        },
        {
            "asn": 5588,
            "country_code": "CZ",
            "description": "GTS Central Europe / Antel Germany",
            "name": "GTSCE"
        },
        {
            "asn": 6663,
            "country_code": "RO",
            "description": "Euroweb Romania S.R.L.",
            "name": "TTI-NET"
        },
        {
            "asn": 8218,
            "country_code": "FR",
            "description": "legacy Neotelecoms",
            "name": "NEO-ASN"
        },
        {
            "asn": 8220,
            "country_code": "GB",
            "description": "COLT Technology Services Group Limited",
            "name": "COLT"
        },
        {
            "asn": 8339,
            "country_code": "AT",
            "description": "kabelplus GmbH",
            "name": "KABSI-AS"
        },
        {
            "asn": 8387,
            "country_code": "AT",
            "description": "Rennweg 97-99",
            "name": "T-SYSTEMS-AT"
        },
        {
            "asn": 8400,
            "country_code": "RS",
            "description": "TELEKOM SRBIJA a.d.",
            "name": "TELEKOM-AS"
        },
        {
            "asn": 8412,
            "country_code": "AT",
            "description": "Rennweg 97-99",
            "name": "TMA"
        },
        {
            "asn": 8447,
            "country_code": "AT",
            "description": "A1 Telekom Austria AG",
            "name": "TELEKOM-AT"
        },
        {
            "asn": 8596,
            "country_code": "AT",
            "description": "hotze.com GmbH",
            "name": "HOTZE-AS"
        },
        {
            "asn": 8674,
            "country_code": "SE",
            "description": "Netnod Internet Exchange Sverige AB",
            "name": "NETNOD-IX"
        },
        {
            "asn": 8692,
            "country_code": "AT",
            "description": "Bundesrechenzentrum GmbH",
            "name": "BRZ"
        },
        {
            "asn": 8953,
            "country_code": "RO",
            "description": "Orange Romania S.A.",
            "name": "ASN-ORANGE-ROMANIA"
        },
        {
            "asn": 9002,
            "country_code": "EU",
            "description": "RETN Limited",
            "name": "RETN-AS"
        },
        {
            "asn": 9009,
            "country_code": "GB",
            "description": "M247 Ltd",
            "name": "M247"
        },
        {
            "asn": 9119,
            "country_code": "SI",
            "description": "Internet Service Provider in Slovenia and South Europe region",
            "name": "SOFTNET-AS"
        },
        {
            "asn": 10310,
            "country_code": "US",
            "description": "Oath Holdings Inc.",
            "name": "YAHOO-1"
        },
        {
            "asn": 12401,
            "country_code": "AT",
            "description": "internic Datenkommunikations GmbH.",
            "name": "INTERNIC-AS12401"
        },
        {
            "asn": 12453,
            "country_code": "AT",
            "description": "Bernhard Kraft",
            "name": "KRAFTCOM-AS"
        },
        {
            "asn": 12577,
            "country_code": "AT",
            "description": "Muehlgasse 14E",
            "name": "MMC-AT-AS"
        },
        {
            "asn": 12991,
            "country_code": "AT",
            "description": "Rechenzentrum",
            "name": "Land-OOE"
        },
        {
            "asn": 13046,
            "country_code": "HR",
            "description": "HEP",
            "name": "ASN-ISKON"
        },
        {
            "asn": 13101,
            "country_code": "DE",
            "description": "TNG Stadtnetz GmbH",
            "name": "TNG-AS"
        },
        {
            "asn": 13237,
            "country_code": "DE",
            "description": "European Backbone of AS13237",
            "name": "LAMBDANET-AS"
        },
        {
            "asn": 15576,
            "country_code": "CH",
            "description": "NTS workspace AG",
            "name": "NTS"
        },
        {
            "asn": 15702,
            "country_code": "AT",
            "description": "Onstage Online GmbH",
            "name": "ONSTAGENET"
        },
        {
            "asn": 20546,
            "country_code": "DE",
            "description": "SOPRADO GmbH",
            "name": "SOPRADO-ANY"
        },
        {
            "asn": 21013,
            "country_code": "AT",
            "description": "Wels, AT",
            "name": "ITANDTEL-AS"
        },
        {
            "asn": 21360,
            "country_code": "AT",
            "description": "Horneckgasse 8",
            "name": "Empirion"
        },
        {
            "asn": 21385,
            "country_code": "DE",
            "description": "Trusted Network GmbH",
            "name": "TNIB"
        },
        {
            "asn": 24864,
            "country_code": "AT",
            "description": "Raiffeisen Informatik GmbH & Co KG",
            "name": "R-IT-AS"
        },
        {
            "asn": 24940,
            "country_code": "DE",
            "description": "Hetzner Online GmbH",
            "name": "HETZNER-AS"
        },
        {
            "asn": 24953,
            "country_code": "AT",
            "description": "AS MACRO: AS-24953 (customers)",
            "name": "ASN-NETPLANET"
        },
        {
            "asn": 25152,
            "country_code": "EU",
            "description": "Reseaux IP Europeens Network Coordination Centre (RIPE NCC)",
            "name": "K-ROOT-SERVER"
        },
        {
            "asn": 25255,
            "country_code": "AT",
            "description": "==> TELE2 AUSTRIA <==",
            "name": "H3G-Austria-AS"
        },
        {
            "asn": 25447,
            "country_code": "AT",
            "description": "Hackl-Str. 1, Object 2",
            "name": "JM-DATA"
        },
        {
            "asn": 25575,
            "country_code": "AT",
            "description": "Ledl.net GmbH",
            "name": "DOMAINTECHNIK"
        },
        {
            "asn": 26415,
            "country_code": "US",
            "description": "VeriSign Global Registry Services",
            "name": "VERISIGN-INC"
        },
        {
            "asn": 28760,
            "country_code": "AT",
            "description": "Schaerdingerstr. 35",
            "name": "INFOTECH-AT-AS"
        },
        {
            "asn": 28889,
            "country_code": "AT",
            "description": "LinzNet Internet Service Provider GmbH",
            "name": "LINZNET-AS"
        },
        {
            "asn": 29056,
            "country_code": "AT",
            "description": "Citycom Telekommunikation GmbH",
            "name": "GSTW-AS"
        },
        {
            "asn": 29208,
            "country_code": "SK",
            "description": "Dial Telecom a.s.",
            "name": "DIALTELECOM-AS"
        },
        {
            "asn": 29287,
            "country_code": "AT",
            "description": "Wien Energie",
            "name": "AT-WZN-AS"
        },
        {
            "asn": 29545,
            "country_code": "AT",
            "description": "Ringstrasse 5",
            "name": "IPLACE"
        },
        {
            "asn": 30971,
            "country_code": "AT",
            "description": "Jakob-Haringer-Strasse 8",
            "name": "NICAT-CORE-AS"
        },
        {
            "asn": 31510,
            "country_code": "AT",
            "description": "Innsbrucker Kommunalbetriebe AG",
            "name": "IKB-AS"
        },
        {
            "asn": 31529,
            "country_code": "DE",
            "description": "DNS anycast AS object for .DE DNS service",
            "name": "DENIC-ANYCAST-AS"
        },
        {
            "asn": 31543,
            "country_code": "AT",
            "description": "myNET gmbh",
            "name": "MYNET-AS"
        },
        {
            "asn": 32590,
            "country_code": "US",
            "description": "Valve Corporation",
            "name": "VALVE-CORPORATION"
        },
        {
            "asn": 34183,
            "country_code": "AT",
            "description": "AUSTRIA",
            "name": "BMG"
        },
        {
            "asn": 34288,
            "country_code": "CH",
            "description": "EDU-ZG-CH - Public Schools in the Canton of Zug",
            "name": "AS34288"
        },
        {
            "asn": 34347,
            "country_code": "AT",
            "description": "HALLAG Kommunal GmbH",
            "name": "CITYNET-AT-AS"
        },
        {
            "asn": 34772,
            "country_code": "MK",
            "description": "NEOTEL DOO export-import Skopje",
            "name": "NEOTEL-AS-MK"
        },
        {
            "asn": 34779,
            "country_code": "SI",
            "description": "AS set propagated by T-2, d.o.o.",
            "name": "T-2-AS"
        },
        {
            "asn": 35052,
            "country_code": "AT",
            "description": "Vienna University",
            "name": "AS_AT_TLD_SERVICES"
        },
        {
            "asn": 35339,
            "country_code": "AT",
            "description": "AtNOC Clemens Zauner e.U.",
            "name": "CZ-AS"
        },
        {
            "asn": 35369,
            "country_code": "AT",
            "description": "LINZ STROM GAS WAERME GmbH fuer Energiedienstleistungen und Telekommunikation",
            "name": "LINZAG-TELEKOM-AS"
        },
        {
            "asn": 38955,
            "country_code": "AT",
            "description": "World4You Internet Services GmbH",
            "name": "WORLD4YOU"
        },
        {
            "asn": 39057,
            "country_code": "AT",
            "description": "DVT-Daten-Verarbeitung-Tirol GmbH",
            "name": "TIROLERLANDESREGIERUNG-AS"
        },
        {
            "asn": 39533,
            "country_code": "CH",
            "description": "Asympto Networks Kft.",
            "name": "asympto"
        },
        {
            "asn": 39560,
            "country_code": "AT",
            "description": "KT-NET Communications GmbH",
            "name": "KT-NET"
        },
        {
            "asn": 39878,
            "country_code": "AT",
            "description": "Peter Rauter GmbH",
            "name": "RAUTER-AS"
        },
        {
            "asn": 39912,
            "country_code": "AT",
            "description": "oja.at GmbH",
            "name": "i3B-AS"
        },
        {
            "asn": 42685,
            "country_code": "AT",
            "description": "Bundeskanzleramt",
            "name": "BKA"
        },
        {
            "asn": 43061,
            "country_code": "SI",
            "description": "Stelkom d.o.o.",
            "name": "SI-STELKOM"
        },
        {
            "asn": 43957,
            "country_code": "AT",
            "description": "WNT Telecommunication GmbH",
            "name": "ASN-WNTNEWMEDIA"
        },
        {
            "asn": 44865,
            "country_code": "AT",
            "description": "derStandard.at GmbH",
            "name": "DERSTANDARD-AS"
        },
        {
            "asn": 47147,
            "country_code": "AT",
            "description": "ANEXIA Internetdienstleistungs GmbH",
            "name": "AS-ANX"
        },
        {
            "asn": 47692,
            "country_code": "AT",
            "description": "Nessus GmbH",
            "name": "NESSUS"
        },
        {
            "asn": 48339,
            "country_code": "AT",
            "description": "Raiffeisen Rechenzentrum GmbH",
            "name": "RRZ_Sued_AS"
        },
        {
            "asn": 48362,
            "country_code": "AT",
            "description": "Stadtwerke Feldkirch",
            "name": "TKSWF-AS"
        },
        {
            "asn": 48943,
            "country_code": "AT",
            "description": "KAPPER NETWORK-COMMUNICATIONS GmbH",
            "name": "KAPPERNET"
        },
        {
            "asn": 49322,
            "country_code": "AT",
            "description": "ViM Internetdienstleistungen GmbH",
            "name": "VIM-AS"
        },
        {
            "asn": 49808,
            "country_code": "AT",
            "description": "Energie AG Oberoesterreich Telekom GmbH",
            "name": "POWERSPEED-AS"
        },
        {
            "asn": 50226,
            "country_code": "AT",
            "description": "NETcompany Internet Provider - NC GmbH",
            "name": "NETCOMPANY1-AS"
        },
        {
            "asn": 50507,
            "country_code": "IT",
            "description": "Accademia Europea di Bolzano",
            "name": "EURAC-AS"
        },
        {
            "asn": 50782,
            "country_code": "AT",
            "description": "COSYS DATA GmbH",
            "name": "COSYS"
        },
        {
            "asn": 51184,
            "country_code": "AT",
            "description": "Fonira Telekom GmbH",
            "name": "FONIRA"
        },
        {
            "asn": 51265,
            "country_code": "AT",
            "description": "Mass Response Service GmbH",
            "name": "MASSRESPONSE-AS2"
        },
        {
            "asn": 54113,
            "country_code": "US",
            "description": "Fastly",
            "name": "FASTLY"
        },
        {
            "asn": 57169,
            "country_code": "AT",
            "description": "EDIS GmbH",
            "name": "EDIS-AS-EU"
        },
        {
            "asn": 57463,
            "country_code": "BG",
            "description": "NetIX Communications Ltd.",
            "name": "NetIX"
        },
        {
            "asn": 59890,
            "country_code": "AT",
            "description": "Kabel-TV Lampert GmbH & Co KG",
            "name": "Kabel-TV-Lampert"
        },
        {
            "asn": 60517,
            "country_code": "AT",
            "description": "Adolf Noehmer Gesellschaft m.b.H. & Co KG",
            "name": "AS-CABLEVISION"
        },
        {
            "asn": 62363,
            "country_code": "AT",
            "description": "Ertl & Gross OG",
            "name": "EGW-AS"
        },
        {
            "asn": 200070,
            "country_code": "CZ",
            "description": "CZ.NIC, z.s.p.o.",
            "name": "CZNIC-AS2"
        },
        {
            "asn": 204419,
            "country_code": "AT",
            "description": "ITNS GmbH",
            "name": "ITNS"
        },
        {
            "asn": 205243,
            "country_code": "AT",
            "description": "CloudNow GmbH",
            "name": "CLOUDNOW-AS"
        },
        {
            "asn": 207203,
            "country_code": "AT",
            "description": "TIMEWARP IT Consulting GmbH",
            "name": "TIMEWARP-AS"
        },
        {
            "asn": 208441,
            "country_code": "AT",
            "description": "Amt der Salzburger Landesregierung",
            "name": "LAND-SALZBURG-AS"
        },
        {
            "asn": 208740,
            "country_code": "AT",
            "description": "Bundesministerium fuer europaeische und internationale Angelegenheiten",
            "name": "AT-BMEIA"
        }
    ]
}
